  6
         -8.22611843
 C         -0.7215035256        0.0131737763       -0.0000023292
 O          0.6827440811       -0.0644367954       -0.0000059958
 H         -1.0880443849       -1.0116359672       -0.0003816673
 H         -1.0991122391        0.5248551740        0.8919780814
 H         -1.0992127896        0.5256067568       -0.8915175952
 H          1.0465472028        0.8270534267        0.0000441142
