  18
        -23.27249245
 C          2.7096257717        0.4485425840       -0.1642468052
 O          1.6129240859       -0.3729460844       -0.4731468833
 C          0.5792691748       -0.3038794459        0.4737850854
 C         -0.6259287025       -1.1814200074        0.1129703833
 C         -1.5616297389        0.0278787901        0.3813677180
 N         -2.5534423120        0.3946855950       -0.5955360159
 C         -0.3277748108        0.9463976314        0.4387433643
 H          2.4232357834        1.5059502274       -0.1279952120
 H          3.4427033088        0.2984300215       -0.9543598973
 H          3.1510448465        0.1713354047        0.8016461929
 H          0.9743574303       -0.5045008344        1.4803574133
 H         -0.7765019858       -2.0715959466        0.7184273621
 H         -0.5935203750       -1.4564575098       -0.9396263323
 H         -2.0599916693       -0.0527473104        1.3504899977
 H         -2.1333527138        0.4547616578       -1.5175350667
 H         -3.2957007595       -0.2952330718       -0.6318647498
 H         -0.2038023856        1.5053605212       -0.4865443875
 H         -0.2654758447        1.6244999136        1.2857275614
  18
        -23.27213172
 C          2.7279179424        0.4026585125       -0.1492035881
 O          1.6081505481       -0.3747438919       -0.4870407795
 C          0.5758365495       -0.3117427294        0.4617586152
 C         -0.6476010310       -1.1562189929        0.0812017361
 C         -1.5612836225        0.0441611460        0.3857599672
 N         -2.5795423880        0.3066851270       -0.5969290620
 C         -0.3064578116        0.9558200565        0.4598557296
 H          2.4738978454        1.4668364837       -0.0771340895
 H          3.4578855628        0.2581593218       -0.9431904703
 H          3.1592500707        0.0802117579        0.8071673694
 H          0.9672863460       -0.5439912059        1.4628780417
 H         -0.8149262566       -2.0607108899        0.6581106458
 H         -0.6330454360       -1.3989499283       -0.9782042487
 H         -2.0509016157       -0.0471707036        1.3585192263
 H         -3.0783847745        1.1628430760       -0.3814902551
 H         -2.1647067736        0.4034508900       -1.5179861883
 H         -0.1673327888        1.5317605706       -0.4547076264
 H         -0.2245101918        1.6126995165        1.3233686035
  18
        -23.26990633
 C          2.1075999834        0.2352030251       -1.0021284612
 O          1.8945998778       -0.2165599454        0.3131739325
 C          0.5667600927       -0.3718681253        0.7413176697
 C         -0.4789447218       -1.0883661891       -0.1379302657
 C         -1.5144109769       -0.0264621733        0.2735828726
 N         -2.3469821642        0.4678083152       -0.7926265721
 C         -0.3657571996        0.8551750995        0.8319054556
 H          3.1714494756        0.4573099569       -1.0687867854
 H          1.5421559563        1.1448453306       -1.2283515802
 H          1.8605812633       -0.5340566191       -1.7424011621
 H          0.6687592400       -0.8582867583        1.7146056101
 H         -0.7023166435       -2.1202978050        0.1176329370
 H         -0.2556524822       -1.0261635152       -1.1999160167
 H         -2.1701180733       -0.3831223264        1.0708974199
 H         -2.9649868020        1.1993972961       -0.4602247003
 H         -1.7797506451        0.8487285436       -1.5430782973
 H         -0.0851077215        1.6473721242        0.1390997902
 H         -0.5008286859        1.2837224485        1.8220587708
  18
        -23.26965891
 C          2.7144201710        0.4415981454       -0.1661063440
 O          1.6260602803       -0.3886744242       -0.4801902710
 C          0.5797337943       -0.3112245441        0.4486513712
 C         -0.6404069915       -1.1611142710        0.0730959607
 C         -1.5524158890        0.0319697674        0.4118332645
 N         -2.5248407739        0.3524748533       -0.6081752716
 C         -0.3144781518        0.9478395915        0.4217375188
 H          2.4248024161        1.4987055836       -0.1546789199
 H          3.4623116377        0.2797146837       -0.9397377456
 H          3.1395352390        0.1837677519        0.8127934899
 H          0.9557651460       -0.5254647663        1.4608361448
 H         -0.7903817835       -2.0807164045        0.6322502528
 H         -0.6433991571       -1.3640267638       -0.9940304553
 H         -1.9857779858       -0.0679563707        1.4214665005
 H         -3.2209671280       -0.3820101563       -0.6777506341
 H         -3.0015381594        1.2198736790       -0.3854428269
 H         -0.2221810481        1.4731924230       -0.5257113549
 H         -0.2195603453        1.6433646581        1.2526369748
  18
        -23.26876411
 C          2.0422761665        0.2369046412       -1.0445499640
 O          1.8860489760       -0.1691995433        0.2960844924
 C          0.5772313852       -0.3620683858        0.7601272738
 C         -0.4657993173       -1.1117819520       -0.0937211955
 C         -1.5107916936       -0.0481382486        0.2912647480
 N         -2.2070224794        0.5262489268       -0.8403316601
 C         -0.3860662919        0.8418777933        0.8508416358
 H          1.9258439159       -0.6066056849       -1.7345359240
 H          3.0596046188        0.6177389561       -1.1241998339
 H          1.3401086223        1.0263116397       -1.3247574569
 H          0.7159497502       -0.8342899588        1.7362825429
 H         -0.6757265769       -2.1391090285        0.1939168007
 H         -0.2489378962       -1.0652825753       -1.1570413930
 H         -2.1822573437       -0.4051382275        1.0890152584
 H         -2.8298472277       -0.1581503744       -1.2567186911
 H         -2.7666072641        1.3195679085       -0.5450268660
 H         -0.1319081577        1.6370128740        0.1549191817
 H         -0.5354004984        1.2622052312        1.8420879139
