!B3LYP DEF2-SVP OPT
%output
  PrintLevel Mini
  end
%pal nprocs 24 end
%geom
   MaxIter 100
   end
* xyz 0 1
 C          2.7096257717        0.4485425840       -0.1642468052
 O          1.6129240859       -0.3729460844       -0.4731468833
 C          0.5792691748       -0.3038794459        0.4737850854
 C         -0.6259287025       -1.1814200074        0.1129703833
 C         -1.5616297389        0.0278787901        0.3813677180
 N         -2.5534423120        0.3946855950       -0.5955360159
 C         -0.3277748108        0.9463976314        0.4387433643
 H          2.4232357834        1.5059502274       -0.1279952120
 H          3.4427033088        0.2984300215       -0.9543598973
 H          3.1510448465        0.1713354047        0.8016461929
 H          0.9743574303       -0.5045008344        1.4803574133
 H         -0.7765019858       -2.0715959466        0.7184273621
 H         -0.5935203750       -1.4564575098       -0.9396263323
 H         -2.0599916693       -0.0527473104        1.3504899977
 H         -2.1333527138        0.4547616578       -1.5175350667
 H         -3.2957007595       -0.2952330718       -0.6318647498
 H         -0.2038023856        1.5053605212       -0.4865443875
 H         -0.2654758447        1.6244999136        1.2857275614
*

