18
Coordinates from ORCA-job input E -326.635443557818
  C       2.709626      0.448543     -0.164247
  O       1.612924     -0.372946     -0.473147
  C       0.579269     -0.303879      0.473785
  C      -0.625929     -1.181420      0.112970
  C      -1.561630      0.027879      0.381368
  N      -2.553442      0.394686     -0.595536
  C      -0.327775      0.946398      0.438743
  H       2.423236      1.505950     -0.127995
  H       3.442703      0.298430     -0.954360
  H       3.151045      0.171335      0.801646
  H       0.974357     -0.504501      1.480357
  H      -0.776502     -2.071596      0.718427
  H      -0.593520     -1.456458     -0.939626
  H      -2.059992     -0.052747      1.350490
  H      -2.133353      0.454762     -1.517535
  H      -3.295701     -0.295233     -0.631865
  H      -0.203802      1.505361     -0.486544
  H      -0.265476      1.624500      1.285728
18
Coordinates from ORCA-job input E -326.637093880409
  C       2.730341      0.444526     -0.159431
  O       1.627370     -0.375687     -0.467806
  C       0.584314     -0.303885      0.472082
  C      -0.622835     -1.188528      0.108638
  C      -1.571779      0.024939      0.374736
  N      -2.585079      0.399416     -0.590861
  C      -0.331493      0.951628      0.434115
  H       2.451875      1.516111     -0.124332
  H       3.478527      0.295765     -0.951811
  H       3.178790      0.170619      0.816842
  H       0.977017     -0.504057      1.489586
  H      -0.772459     -2.094867      0.715818
  H      -0.589094     -1.462015     -0.956609
  H      -2.063337     -0.059073      1.358137
  H      -2.182865      0.455131     -1.527233
  H      -3.336864     -0.290157     -0.620295
  H      -0.203841      1.512581     -0.504414
  H      -0.272548      1.646616      1.285499
18
Coordinates from ORCA-job input E -326.637322583490
  C       2.738718      0.440016     -0.147791
  O       1.637017     -0.377380     -0.462181
  C       0.586146     -0.301878      0.467490
  C      -0.618803     -1.187735      0.096759
  C      -1.572435      0.023660      0.370698
  N      -2.603316      0.400856     -0.575322
  C      -0.331824      0.954510      0.420424
  H       2.466704      1.514823     -0.115376
  H       3.496387      0.292648     -0.932793
  H       3.183626      0.169551      0.832692
  H       0.969805     -0.499803      1.490077
  H      -0.767234     -2.102871      0.693317
  H      -0.584311     -1.450446     -0.972866
  H      -2.047955     -0.063381      1.362796
  H      -2.221218      0.445074     -1.521195
  H      -3.357351     -0.287049     -0.590215
  H      -0.204020      1.505257     -0.526089
  H      -0.273898      1.663213      1.262236
18
Coordinates from ORCA-job input E -326.637650414817
  C       2.755471      0.430410     -0.115155
  O       1.660128     -0.381397     -0.447839
  C       0.588122     -0.296992      0.453782
  C      -0.610529     -1.181696      0.062925
  C      -1.568724      0.022344      0.362992
  N      -2.641400      0.400798     -0.532277
  C      -0.330170      0.959945      0.381678
  H       2.495174      1.509500     -0.091894
  H       3.535341      0.283696     -0.879080
  H       3.184766      0.168304      0.875772
  H       0.944931     -0.489398      1.487653
  H      -0.757452     -2.117354      0.628044
  H      -0.574092     -1.411755     -1.015355
  H      -1.999413     -0.071656      1.375324
  H      -2.310508      0.416968     -1.499080
  H      -3.399386     -0.283340     -0.505020
  H      -0.204648      1.478439     -0.584532
  H      -0.271572      1.702246      1.194723
18
Coordinates from ORCA-job input E -326.637876762097
  C       2.769998      0.423344     -0.081560
  O       1.682013     -0.385198     -0.434652
  C       0.588241     -0.292371      0.438149
  C      -0.604831     -1.173475      0.028241
  C      -1.561803      0.022408      0.357873
  N      -2.672460      0.396700     -0.489076
  C      -0.327384      0.963857      0.341503
  H       2.516388      1.504183     -0.069999
  H       3.569570      0.272854     -0.823808
  H       3.177655      0.168391      0.920294
  H       0.916905     -0.479687      1.481965
  H      -0.750573     -2.127284      0.561471
  H      -0.567159     -1.368937     -1.056711
  H      -1.947311     -0.077441      1.387562
  H      -2.389897      0.392443     -1.471529
  H      -3.430836     -0.284235     -0.418465
  H      -0.207759      1.447082     -0.643454
  H      -0.264719      1.736430      1.124857
18
Coordinates from ORCA-job input E -326.637958861120
  C       2.783052      0.418838     -0.049117
  O       1.702191     -0.388655     -0.423766
  C       0.587560     -0.287859      0.420975
  C      -0.601373     -1.164715     -0.004298
  C      -1.553252      0.023164      0.355024
  N      -2.697257      0.389333     -0.448485
  C      -0.324528      0.966630      0.302906
  H       2.531869      1.499590     -0.051378
  H       3.599368      0.260143     -0.770301
  H       3.164383      0.169354      0.963712
  H       0.888945     -0.470459      1.473315
  H      -0.745160     -2.133845      0.499461
  H      -0.563959     -1.326437     -1.094211
  H      -1.896650     -0.081392      1.398668
  H      -2.456893      0.375248     -1.441741
  H      -3.452722     -0.289088     -0.337278
  H      -0.214569      1.414376     -0.699134
  H      -0.254969      1.764836      1.058309
18
Coordinates from ORCA-job input E -326.638013030810
  C       2.786709      0.419873     -0.040840
  O       1.707625     -0.389799     -0.422525
  C       0.587371     -0.286871      0.414811
  C      -0.601855     -1.162430     -0.011346
  C      -1.549952      0.023592      0.356465
  N      -2.701024      0.384808     -0.439364
  C      -0.323551      0.966675      0.293804
  H       2.532068      1.499043     -0.049911
  H       3.605937      0.254739     -0.756590
  H       3.156437      0.171192      0.975755
  H       0.881162     -0.468426      1.469273
  H      -0.743912     -2.134821      0.485738
  H      -0.566110     -1.314424     -1.102324
  H      -1.884368     -0.081783      1.402718
  H      -2.466931      0.377622     -1.433623
  H      -3.454754     -0.293325     -0.319312
  H      -0.219697      1.403763     -0.713099
  H      -0.249117      1.769632      1.043030
18
Coordinates from ORCA-job input E -326.638030948999
  C       2.787487      0.421737     -0.040719
  O       1.708343     -0.390652     -0.423427
  C       0.587896     -0.287252      0.413251
  C      -0.602512     -1.163101     -0.010286
  C      -1.549677      0.023263      0.358585
  N      -2.699859      0.382947     -0.439653
  C      -0.323422      0.966176      0.294073
  H       2.529233      1.499762     -0.053610
  H       3.606197      0.252553     -0.756028
  H       3.152876      0.173472      0.977323
  H       0.880753     -0.468657      1.468257
  H      -0.742684     -2.135598      0.487334
  H      -0.568990     -1.313749     -1.101674
  H      -1.885783     -0.081772      1.404436
  H      -2.461910      0.385831     -1.432671
  H      -3.452946     -0.295920     -0.322431
  H      -0.222968      1.401662     -0.714024
  H      -0.245996      1.768360      1.043924
18
Coordinates from ORCA-job input E -326.638033041517
  C       2.788253      0.421930     -0.039643
  O       1.709340     -0.391417     -0.422947
  C       0.588319     -0.287354      0.412254
  C      -0.602151     -1.163514     -0.011003
  C      -1.549769      0.022754      0.359209
  N      -2.700826      0.382594     -0.437648
  C      -0.323477      0.966112      0.292588
  H       2.529396      1.499832     -0.054602
  H       3.607836      0.251369     -0.753733
  H       3.151699      0.174735      0.979417
  H       0.879679     -0.468211      1.467986
  H      -0.741106     -2.136826      0.485690
  H      -0.570062     -1.312575     -1.102847
  H      -1.884979     -0.082228      1.405473
  H      -2.463255      0.389583     -1.430699
  H      -3.453389     -0.296992     -0.321632
  H      -0.224486      1.399921     -0.716609
  H      -0.244982      1.769350      1.041406
18
Coordinates from ORCA-job input E -326.638033935850
  C       2.788441      0.421926     -0.039610
  O       1.709618     -0.391935     -0.422677
  C       0.588596     -0.287519      0.411894
  C      -0.601807     -1.164068     -0.010794
  C      -1.550070      0.022239      0.359779
  N      -2.701114      0.382650     -0.436643
  C      -0.323666      0.965964      0.292220
  H       2.529517      1.499841     -0.055744
  H       3.608530      0.250827     -0.753050
  H       3.151323      0.175695      0.979936
  H       0.879164     -0.467861      1.468055
  H      -0.739765     -2.137698      0.485730
  H      -0.571135     -1.312678     -1.102839
  H      -1.885263     -0.082531      1.406131
  H      -2.463068      0.393363     -1.429559
  H      -3.453047     -0.298113     -0.323422
  H      -0.225563      1.399325     -0.717377
  H      -0.244652      1.769637      1.040631
